Version 4
SHEET 1 1032 680
WIRE 272 -704 256 -704
WIRE 272 -576 256 -576
WIRE 368 -576 352 -576
WIRE -400 -544 -416 -544
WIRE -208 -544 -224 -544
WIRE -32 -544 -48 -544
WIRE 144 -544 128 -544
WIRE -368 -512 -384 -512
WIRE -176 -512 -192 -512
WIRE 0 -512 -16 -512
WIRE 176 -512 160 -512
WIRE 256 -464 256 -576
WIRE 272 -464 256 -464
WIRE 368 -464 336 -464
WIRE -400 -416 -416 -416
WIRE -208 -416 -224 -416
WIRE -32 -416 -48 -416
WIRE 144 -416 128 -416
WIRE -496 -400 -512 -400
WIRE -448 -400 -464 -400
WIRE -304 -400 -320 -400
WIRE -256 -400 -272 -400
WIRE -128 -400 -144 -400
WIRE -80 -400 -96 -400
WIRE 48 -400 32 -400
WIRE 96 -400 80 -400
WIRE 400 -304 384 -304
WIRE 512 -304 496 -304
WIRE -672 -288 -704 -288
WIRE -576 -288 -592 -288
WIRE 384 -272 384 -304
WIRE 496 -272 496 -304
WIRE -576 -208 -704 -208
WIRE 160 -208 160 -224
WIRE 192 -208 192 -224
WIRE 384 -160 384 -192
WIRE 384 -160 272 -160
WIRE 384 -144 384 -160
WIRE 496 -144 496 -192
FLAG 384 -144 0
FLAG 368 -576 0
FLAG 400 -304 VDC
FLAG 272 -704 VDC
FLAG -368 -512 Tj
FLAG 496 -144 0
FLAG 512 -304 Tj
FLAG -176 -512 Tj
FLAG 0 -512 Tj
FLAG 176 -512 Tj
FLAG 368 -464 0
SYMBOL nmos_die -464 -480 R0
WINDOW 3 39 -60 Right 2
WINDOW 0 1 -9 Right 2
SYMATTR Value CPM2-1200-0160B
SYMATTR InstName Q1
SYMBOL Misc/EuropeanResistor -496 -304 R180
WINDOW 0 31 76 Left 2
WINDOW 3 31 40 Left 2
SYMATTR InstName RG1
SYMATTR Value {RG}
SYMBOL Quadraat\ 0004 -128 -464 R0
WINDOW 0 -100 -280 Invisible 2
WINDOW 3 0 -280 Invisible 2
SYMATTR InstName U1
SYMBOL Misc/EuropeanResistor -304 -304 R180
WINDOW 0 31 76 Left 2
WINDOW 3 31 40 Left 2
SYMATTR InstName RG2
SYMATTR Value {RG}
SYMBOL CPW41200S010B -416 -640 R180
WINDOW 0 8 32 Left 2
WINDOW 3 8 -32 Left 2
SYMATTR InstName D1
SYMBOL CPW41200S010B -224 -640 R180
WINDOW 0 8 32 Left 2
WINDOW 3 8 -32 Invisible 2
SYMATTR InstName D2
SYMBOL CPW41200S010B -48 -640 R180
WINDOW 0 8 32 Left 2
WINDOW 3 8 -32 Invisible 2
SYMATTR InstName D3
SYMBOL CPW41200S010B 128 -640 R180
WINDOW 0 8 32 Left 2
WINDOW 3 8 -32 Invisible 2
SYMATTR InstName D4
SYMBOL Misc/EuropeanResistor -128 -304 R180
WINDOW 0 31 76 Left 2
WINDOW 3 31 40 Left 2
SYMATTR InstName RG3
SYMATTR Value {RG}
SYMBOL Misc/EuropeanResistor 48 -304 R180
WINDOW 0 31 76 Left 2
WINDOW 3 31 40 Left 2
SYMATTR InstName RG4
SYMATTR Value {RG}
SYMBOL Misc/EuropeanResistor -432 -304 R180
WINDOW 0 31 76 Left 2
WINDOW 3 31 40 Left 2
SYMATTR InstName RS1
SYMATTR Value {RS}
SYMBOL Misc/EuropeanResistor -240 -304 R180
WINDOW 0 31 76 Left 2
WINDOW 3 31 40 Left 2
SYMATTR InstName RS2
SYMATTR Value {RS}
SYMBOL Misc/EuropeanResistor -64 -304 R180
WINDOW 0 31 76 Left 2
WINDOW 3 31 40 Left 2
SYMATTR InstName RS3
SYMATTR Value {RS}
SYMBOL Misc/EuropeanResistor 112 -304 R180
WINDOW 0 31 76 Left 2
WINDOW 3 31 40 Left 2
SYMATTR InstName RS4
SYMATTR Value {RS}
SYMBOL voltage 384 -288 R0
SYMATTR InstName V1
SYMATTR Value 650
SYMBOL current 352 -576 R90
WINDOW 0 -32 40 VBottom 2
WINDOW 3 32 40 VTop 2
SYMATTR InstName I1
SYMATTR Value 40
SYMBOL voltage -704 -304 M0
WINDOW 3 24 96 Invisible 2
SYMATTR Value PWL(0 -5 {ton} -5 {ton+1n} 20 {toff} 20 {toff+1n} -5 {tend} -5)
SYMATTR InstName VG
SYMBOL Misc/EuropeanResistor -688 -272 R270
WINDOW 0 27 56 VTop 2
WINDOW 3 5 56 VBottom 2
SYMATTR InstName RG
SYMATTR Value 12
SYMBOL voltage 496 -288 R0
SYMATTR InstName VTj
SYMATTR Value 25
SYMBOL nmos_die -272 -480 R0
WINDOW 3 39 -60 Invisible 2
WINDOW 0 1 -9 Right 2
SYMATTR Value CPM2-1200-0160B
SYMATTR InstName Q2
SYMBOL nmos_die -96 -480 R0
WINDOW 3 39 -60 Invisible 2
WINDOW 0 1 -9 Right 2
SYMATTR Value CPM2-1200-0160B
SYMATTR InstName Q3
SYMBOL nmos_die 80 -480 R0
WINDOW 3 39 -60 Invisible 2
WINDOW 0 1 -9 Right 2
SYMATTR Value CPM2-1200-0160B
SYMATTR InstName Q4
SYMBOL cap 336 -480 R90
WINDOW 0 0 32 VBottom 2
WINDOW 3 32 32 VTop 2
SYMATTR InstName Cout
SYMATTR Value 10p
TEXT -720 -48 Left 2 !.tran {tend}
TEXT -720 -120 Left 2 !.lib CPM2-1200-0160B.lib\n.lib Cree Power CPW4 Bare Die SPICE Model Library.lib
TEXT -480 -24 Left 2 !.param RG 5m\n.param RS 1.5
TEXT -720 -24 Left 2 !.param ton 100n\n.param toff 600n\n.param tend 1000n
TEXT -720 64 Left 2 !.lib Quadraat 0004 [4.0 4.0 4.0 4.0].cir
TEXT -720 88 Left 2 ;.lib Quadraat 0004 [7.0 6.0 5.0 4.0].cir
TEXT -240 -24 Left 2 !*Solver parameters selection; 1=detailed, 2=loose\n.options method=Gear gmin={gmin} abstol={abstol} reltol={reltol}\n.param gmin table(solver_settings,1,1e-12,2,1e-11)\n.param abstol table(solver_settings,1,1e-11,2,1e-10)\n.param reltol table(solver_settings,1,0.005,2,0.05)\n.param solver_settings 2
